/*--------------------------------*- C++ -*----------------------------------*\
| =========                 |                                                 |
| \\      /  F ield         | OpenFOAM: The Open Source CFD Toolbox           |
|  \\    /   O peration     | Version:  2.4.0                                 |
|   \\  /    A nd           | Web:      www.OpenFOAM.org                      |
|    \\/     M anipulation  |                                                 |
\*---------------------------------------------------------------------------*/
FoamFile
{
    version     2.0;
    format      ascii;
    class       volScalarField;
    object      p;
}
// * * * * * * * * * * * * * * * * * * * * * * * * * * * * * * * * * * * * * //

dimensions      [0 2 -2 0 0 0 0];

internalField   uniform 10;

boundaryField
{
    outlet
    {
        type            zeroGradient;
    }
    inlet
    {
        type            zeroGradient;
    }
    ring_1
    {
        type            zeroGradient;
    }
    ring_2
    {
        type            zeroGradient;
    }
    ring_3
    {
        type            zeroGradient;
    }
    ring_4
    {
        type            zeroGradient;
    }
    pt
    {
        type            zeroGradient;
    }
    walls
    {
        type            empty;
    }
}

// ************************************************************************* //
